$NASTRAN Data File Generated from OpenVSP 3.30.0
$Num_Els: 192
$Num_Tris: 0
$Num_Quads: 192
$Num_Beams 0

$ 1, Skin_Gridpoints
SET 1 = 1,2,3,4,5,6,7,8,9,
10,11,12,13,14,15,16,17,18,
19,20,21,22,23,24,25,26,27,
28,29,30,31,32,33,34,35,36,
37,38,39,40,41,42,43,44,45,
46,47,48,49,50,51,52,53,54,
55,56,57,58,59,60,61,62,63,
64,65,66,67,68,69,70,71,72,
73,74,75,76,77,78,79,80,81,
82,83,84,85,86,87,88,89,90,
91,92,93,94,95,96,97,98,99,
100,101,102,103,104,105,106,107,108,
109,110,111,112,113,114,115,116,117,
118,119,120,121,122,123,124,125,126,
127,128,129,130,131,132,133,134,135,
136,137,138,139,140,141,142,143,144,
145,146,147,148,149,150,151,152,153,
154,155,156,157,158,159,160,161,162,
163,164,165,166,167,168,169,170,171,
172,173,174,175,176,177,178,179,180,
181,182,183,184,185,186,187,188,189,
$ ... 44 like lines cut

$ 2, Skin_ShellElements
SET 2 = 585,586,587,588,589,590,591,592,593,
594,595,596,597,598,599,600,601,602,
603,604,605,606,607,608,609,610,611,
612,613,614,615,616,617,618,619,620,
621,622,623,624,625,626,627,628,629,
630,631,632,633,634,635,636,637,638,
639,640,641,642,643,644,645,646,647,
648,649,650,651,652,653,654,655,656,
657,658,659,660,661,662,663,664,665,
666,667,668,669,670,671,672,673,674,
675,676,677,678,679,680,681,682,683,
684,685,686,687,688,689,690,691,692,
693,694,695,696,697,698,699,700,701,
702,703,704,705,706,707,708,709,710,
711,712,713,714,715,716,717,718,719,
720,721,722,723,724,725,726,727,728,
729,730,731,732,733,734,735,736,737,
738,739,740,741,742,743,744,745,746,
747,748,749,750,751,752,753,754,755,
756,757,758,759,760,761,762,763,764,
765,766,767,768,769,770,771,772,773,
774,775,776

BEGIN BULK

$Skin Gridpoints
GRID    ,       1,        ,5.56e-04,0.249708,0.016131
GRID    ,       2,        ,0.100316,0.252020,0.003497
GRID    ,       3,        ,0.133461,0.168017,-0.00115
GRID    ,       4,        ,0.100025,0.125190,-0.00337
GRID    ,       5,        ,0.050436,0.250864,0.009814
GRID    ,       6,        ,0.116889,0.210018,0.001175
GRID    ,       7,        ,0.116743,0.146604,-0.00226
GRID    ,       8,        ,0.050290,0.187449,0.006382
GRID    ,       9,        ,0.200168,0.253612,0.004147
GRID    ,      10,        ,0.199901,0.126807,-0.00316
GRID    ,      11,        ,0.200035,0.190209,4.95e-04
GRID    ,      12,        ,0.166681,0.147412,-0.00215
GRID    ,      13,        ,0.150242,0.252816,0.003822
GRID    ,      14,        ,0.199635, 0.0e+00,-0.01046
GRID    ,      15,        ,0.149830,0.062595,-0.00692
GRID    ,      16,        ,0.199768,0.063403,-0.00681
GRID    ,      17,        ,9.89e-04,0.499311,0.028768
GRID    ,      18,        ,0.100849,0.499663,0.016900
GRID    ,      19,        ,0.133995,0.417650,0.012655
GRID    ,      20,        ,0.100563,0.376798,0.010250
$ ... 564 like lines cut

$Rib0 Gridpoints

$Rib1 Gridpoints

$Rib2 Gridpoints

$Rib3 Gridpoints

$Rib4 Gridpoints

$Rib5 Gridpoints

$Intersections

$Remainingnodes

$Skin
CQUAD8  ,     585,       1,       1,       2,       3,       4,       5,       6,
        ,       7,       8,        ,        ,        ,        ,88.94789
CQUAD8  ,     586,       1,       9,      10,       3,       2,      11,      12,
        ,       6,      13,        ,        ,        ,        ,179.9170
CQUAD8  ,     587,       1,      14,       4,       3,      10,      15,       7,
        ,      12,      16,        ,        ,        ,        ,-38.5853
CQUAD8  ,     588,       1,      17,      18,      19,      20,      21,      22,
        ,      23,      24,        ,        ,        ,        ,90.03939
CQUAD8  ,     589,       1,      25,      26,      19,      18,      27,      28,
        ,      22,      29,        ,        ,        ,        ,179.9170
CQUAD8  ,     590,       1,       9,      20,      19,      26,      30,      23,
        ,      28,      31,        ,        ,        ,        ,39.04729
CQUAD8  ,     591,       1,      17,      32,      33,      18,      34,      35,
        ,      36,      21,        ,        ,        ,        ,39.27893
CQUAD8  ,     592,       1,      37,      38,      33,      32,      39,      40,
        ,      35,      41,        ,        ,        ,        ,179.9170
CQUAD8  ,     593,       1,      25,      18,      33,      38,      29,      36,
        ,      40,      42,        ,        ,        ,        ,89.95680
CQUAD8  ,     594,       1,       1,       4,      43,      44,       8,      45,
        ,      46,      47,        ,        ,        ,        ,141.2140
CQUAD8  ,     595,       1,      14,      48,      43,       4,      49,      50,
        ,      45,      15,        ,        ,        ,        ,-90.1101
CQUAD8  ,     596,       1,      51,      44,      43,      48,      52,      46,
        ,      50,      53,        ,        ,        ,        ,0.081832
CQUAD8  ,     597,       1,      54,      55,      56,      57,      58,      59,
        ,      60,      61,        ,        ,        ,        ,91.12404
CQUAD8  ,     598,       1,      37,      32,      56,      55,      41,      62,
        ,      59,      63,        ,        ,        ,        ,140.9313
CQUAD8  ,     599,       1,      17,      57,      56,      32,      64,      60,
        ,      62,      34,        ,        ,        ,        ,0.085203
CQUAD8  ,     600,       1,      65,      66,      67,      68,      69,      70,
        ,      71,      72,        ,        ,        ,        ,141.3974
CQUAD8  ,     601,       1,      54,      73,      67,      66,      74,      75,
        ,      70,      76,        ,        ,        ,        ,0.085207
CQUAD8  ,     602,       1,      77,      68,      67,      73,      78,      71,
        ,      75,      79,        ,        ,        ,        ,89.87067
CQUAD8  ,     603,       1,       1,      80,      81,       2,      82,      83,
        ,      84,       5,        ,        ,        ,        ,0.085174
CQUAD8  ,     604,       1,      17,      20,      81,      80,      24,      85,
        ,      83,      86,        ,        ,        ,        ,140.7532
$ ... 344 like lines cut

$Rib0

$Rib1

$Rib2

$Rib3

$Rib4

$Rib5

$Properties
$ DefaultShell using Aluminum 7075-T6
PSHELL  ,       1,       1,0.030480,      -1,        ,        ,        ,        ,
        ,        ,        ,        
$ DefaultBeam using Aluminum 7075-T6
PBAR    ,       2,       1,0.009290,8.63e-04,8.63e-04, 0.0e+00,        ,        ,
        ,        ,        ,        ,        ,        ,        ,        ,        ,
        ,        ,        , 0.0e+00
$ DefaultShell using Aluminum 7075-T6
PSHELL  ,       3,       1,0.030480,      -1,        ,        ,        ,        ,
        ,        ,        ,        
$ DefaultBeam using Aluminum 7075-T6
PBAR    ,       4,       1,0.009290,8.63e-04,8.63e-04, 0.0e+00,        ,        ,
        ,        ,        ,        ,        ,        ,        ,        ,        ,
        ,        ,        , 0.0e+00
$ DefaultShell using Aluminum 7075-T6
PSHELL  ,       5,       1,0.030480,      -1,        ,        ,        ,        ,
        ,        ,        ,        
$ DefaultBeam using Aluminum 7075-T6
PBAR    ,       6,       1,0.009290,8.63e-04,8.63e-04, 0.0e+00,        ,        ,
        ,        ,        ,        ,        ,        ,        ,        ,        ,
        ,        ,        , 0.0e+00
$ DefaultShell using Aluminum 7075-T6
PSHELL  ,       7,       1,0.030480,      -1,        ,        ,        ,        ,
        ,        ,        ,        
$ DefaultBeam using Aluminum 7075-T6
PBAR    ,       8,       1,0.009290,8.63e-04,8.63e-04, 0.0e+00,        ,        ,
        ,        ,        ,        ,        ,        ,        ,        ,        ,
        ,        ,        , 0.0e+00
$ DefaultShell using Aluminum 7075-T6
PSHELL  ,       9,       1,0.030480,      -1,        ,        ,        ,        ,
        ,        ,        ,        
$ DefaultBeam using Aluminum 7075-T6
PBAR    ,      10,       1,0.009290,8.63e-04,8.63e-04, 0.0e+00,        ,        ,
        ,        ,        ,        ,        ,        ,        ,        ,        ,
        ,        ,        , 0.0e+00
$ DefaultShell using Aluminum 7075-T6
PSHELL  ,      11,       1,0.030480,      -1,        ,        ,        ,        ,
        ,        ,        ,        
$ DefaultBeam using Aluminum 7075-T6
PBAR    ,      12,       1,0.009290,8.63e-04,8.63e-04, 0.0e+00,        ,        ,
        ,        ,        ,        ,        ,        ,        ,        ,        ,
        ,        ,        , 0.0e+00
$ DefaultShell using Aluminum 7075-T6
PSHELL  ,      13,       1,0.030480,      -1,        ,        ,        ,        ,
        ,        ,        ,        
$ DefaultBeam using Aluminum 7075-T6
PBAR    ,      14,       1,0.009290,8.63e-04,8.63e-04, 0.0e+00,        ,        ,
        ,        ,        ,        ,        ,        ,        ,        ,        ,
        ,        ,        , 0.0e+00
$ DefaultShell using Aluminum 7075-T6
PSHELL  ,      15,       1,0.030480,      -1,        ,        ,        ,        ,
        ,        ,        ,        
$ DefaultBeam using Aluminum 7075-T6
PBAR    ,      16,       1,0.009290,8.63e-04,8.63e-04, 0.0e+00,        ,        ,
        ,        ,        ,        ,        ,        ,        ,        ,        ,
        ,        ,        , 0.0e+00

$Materials
$ Aluminum 7075-T6
MAT1    ,       1,7.17e+10,2.70e+10,0.330000,2810.000,2.36e-05


ENDDATA
