BEGIN BULK

$Properties
$ DefaultShell using Aluminum 6061-T6
PSHELL  ,       5,       2,0.008333,       2,        ,        ,        ,        ,
        ,        ,        ,        

$Materials
$ Aluminum 6061-T6
MAT1    ,       2,1.43e+09,5.36e+08,0.330000,5.263380,1.30e-05


$ Skin WingGeom_Struct0 Gridpoints
GRID    ,       1,        ,3.438651,0.503595,-0.22486,        ,
GRID    ,       2,        ,3.181525,00.0e+00,-0.23768,        ,
GRID    ,       3,        ,2.996324,0.498871,-0.24581,        ,
GRID    ,       5,        ,0.288392,0.672108,-0.15313,        ,
GRID    ,       7,        ,2.564717,0.501041,-0.26099,        ,
GRID    ,      11,        ,0.424280,00.0e+00,-0.18092,        ,
GRID    ,      12,        ,0.187179,00.0e+00,-0.12588,        ,
GRID    ,      13,        ,0.275707,0.309899,-0.15009,        ,
GRID    ,      14,        ,00.0e+00,00.0e+00,00.0e+00,        ,
GRID    ,      15,        ,00.0e+00,0.218845,00.0e+00,        ,
GRID    ,      16,        ,00.0e+00,0.407251,00.0e+00,        ,
GRID    ,      17,        ,00.0e+00,0.595657,00.0e+00,        ,
GRID    ,      18,        ,00.0e+00,0.784063,00.0e+00,        ,
GRID    ,      20,        ,2.804348,00.0e+00,-0.25324,        ,
GRID    ,      21,        ,3.995437,1.501469,-0.19101,        ,
GRID    ,      22,        ,3.634161,1.571849,-0.21395,        ,
GRID    ,      23,        ,3.995437,2.000000,-0.19101,        ,
GRID    ,      24,        ,2.427022,2.000000,-0.26460,        ,
GRID    ,      27,        ,1.541011,2.000000,-0.26867,        ,
GRID    ,      29,        ,00.0e+00,1.252193,00.0e+00,        ,
$ ... 556 like lines cut

$ RibArray0 WingGeom_Struct0 Gridpoints
GRID    ,     737,        ,1.769274,1.002921,-0.08458,        ,
GRID    ,     738,        ,1.334829,1.002921,-0.06382,        ,
GRID    ,     739,        ,1.334496,3.008762,-0.06390,        ,
GRID    ,     740,        ,1.769209,3.008762,-0.08460,        ,
GRID    ,     741,        ,1.769288,5.014603,-0.08458,        ,
GRID    ,     742,        ,1.334870,5.014603,-0.06382,        ,
GRID    ,     743,        ,1.772682,9.026285,-0.08475,        ,
GRID    ,     744,        ,1.340322,9.026285,-0.06407,        ,

$ Spar1 WingGeom_Struct0 Gridpoints
GRID    ,     745,        ,1.997718,9.851364,-0.09550,        ,
GRID    ,     746,        ,1.997718,2.504378,-0.09550,        ,

$ WingGeom_Struct0 Intersections
GRID    ,       4,        ,0.422885,1.002921,-0.18068,        ,
GRID    ,       6,        ,0.185709,1.002921,-0.12543,        ,
GRID    ,       8,        ,2.427024,1.002921,-0.26460,        ,
GRID    ,       9,        ,2.804355,1.002921,-0.25324,        ,
GRID    ,      10,        ,3.181528,1.002921,-0.23768,        ,
GRID    ,      19,        ,3.558512,1.002921,-0.21829,        ,
GRID    ,      25,        ,1.989313,1.501460,-0.27133,        ,
GRID    ,      26,        ,1.989313,2.000000,-0.27133,        ,
GRID    ,      28,        ,00.0e+00,1.002921,00.0e+00,        ,
GRID    ,      35,        ,1.112912,1.002921,-0.25321,        ,
GRID    ,      36,        ,0.728544,1.002921,-0.22299,        ,
GRID    ,      53,        ,1.989313,1.002921,-0.27133,        ,
GRID    ,      57,        ,1.989313,0.375409,-0.27133,        ,
GRID    ,      59,        ,1.989313,0.627545,-0.27133,        ,
GRID    ,      61,        ,1.540085,1.002921,-0.26865,        ,
GRID    ,      72,        ,1.989313,00.0e+00,-0.27133,        ,
GRID    ,      76,        ,3.995437,1.002921,-0.19101,        ,
GRID    ,      83,        ,1.558633,1.002921,0.120518,        ,
GRID    ,      84,        ,1.131936,1.002921,0.145892,        ,
GRID    ,      90,        ,0.196811,1.002921,0.107137,        ,
$ ... 140 like lines cut

$ Skin WingGeom_Struct0
CTRIA3  ,       1,       5,       1,       2,       3,152.9232
CTRIA3  ,       2,       5,       4,       5,       6,157.4621
CTRIA3  ,       3,       5,       7,       8,       9,15.34680
CTRIA3  ,       4,       5,       3,      10,       1,159.8072
CTRIA3  ,       5,       5,      11,      12,      13,90.00000
CTRIA3  ,       6,       5,      14,      15,      12,00.0e+00
CTRIA3  ,       7,       5,      13,      12,      15,163.5029
CTRIA3  ,       8,       5,      13,      15,      16,106.1752
CTRIA3  ,       9,       5,       5,      17,      18,103.1775
CTRIA3  ,      10,       5,       5,      18,       6,71.07489
CTRIA3  ,      11,       5,      10,      19,       1,90.00000
CTRIA3  ,      12,       5,       3,       9,      10,20.86387
CTRIA3  ,      13,       5,       2,      20,       3,90.00000
CTRIA3  ,      14,       5,      21,      22,      23,78.99788
CTRIA3  ,      15,       5,       9,       3,       7,20.86387
CTRIA3  ,      16,       5,      24,      25,      26,138.7141
CTRIA3  ,      17,       5,      26,      25,      27,180.0000
CTRIA3  ,      18,       5,       6,      28,      29,90.00000
CTRIA3  ,      19,       5,       2,       1,      30,152.9232
CTRIA3  ,      20,       5,       6,      18,      28,134.3223
$ ... 1428 like lines cut

$ RibArray0 WingGeom_Struct0
CTRIA3  ,    1449,       5,       6,      28,      90,148.7019
CTRIA3  ,    1450,       5,     124,      99,      53,176.3821
CTRIA3  ,    1451,       5,     110,      36,       4,90.00055
CTRIA3  ,    1452,       5,      96,       4,       6,90.00307
CTRIA3  ,    1453,       5,     124,     737,      83,37.58350
CTRIA3  ,    1454,       5,      83,      61,     738,90.00838
CTRIA3  ,    1455,       5,       6,      90,      96,90.00378
CTRIA3  ,    1456,       5,      96,     110,       4,5.144115
CTRIA3  ,    1457,       5,      35,      36,      84,178.2409
CTRIA3  ,    1458,       5,      84,      36,     110,45.17809
CTRIA3  ,    1459,       5,      61,      35,     738,0.666498
CTRIA3  ,    1460,       5,      84,     738,      35,136.7905
CTRIA3  ,    1461,       5,     124,      53,     737,90.00000
CTRIA3  ,    1462,       5,       9,       8,      92,4.460361
CTRIA3  ,    1463,       5,      83,     738,      84,42.21331
CTRIA3  ,    1464,       5,     102,      10,       9,90.02424
CTRIA3  ,    1465,       5,     103,      19,      10,89.99261
CTRIA3  ,    1466,       5,       8,      53,      99,3.617920
CTRIA3  ,    1467,       5,       8,      99,      92,90.00922
CTRIA3  ,    1468,       5,      83,     737,      61,138.5012
$ ... 96 like lines cut

$ Spar1 WingGeom_Struct0
CTRIA3  ,    1565,       5,     745,     632,     574,44.70596
CTRIA3  ,    1566,       5,     313,     322,     374,180.0000
CTRIA3  ,    1567,       5,     746,     247,     186,53.92272
CTRIA3  ,    1568,       5,     436,     494,     438,53.92167
CTRIA3  ,    1569,       5,     246,     247,     746,00.0e+00
CTRIA3  ,    1570,       5,     312,     386,     319,53.46971
CTRIA3  ,    1571,       5,     536,     598,     535,51.43349
CTRIA3  ,    1572,       5,     696,     574,     632,49.87904
CTRIA3  ,    1573,       5,     123,      59,      57,90.00127
CTRIA3  ,    1574,       5,     186,     185,     746,180.0000
CTRIA3  ,    1575,       5,     248,     192,     186,90.00000
CTRIA3  ,    1576,       5,     248,     226,     192,00.0e+00
CTRIA3  ,    1577,       5,     106,     104,      25,00.0e+00
CTRIA3  ,    1578,       5,      26,     246,     185,43.10659
CTRIA3  ,    1579,       5,      26,      25,     104,180.0000
CTRIA3  ,    1580,       5,      25,      53,     106,180.0000
CTRIA3  ,    1581,       5,     104,     246,      26,00.0e+00
CTRIA3  ,    1582,       5,     159,     192,     226,180.0000
CTRIA3  ,    1583,       5,     224,     379,     160,00.0e+00
CTRIA3  ,    1584,       5,     224,     159,     226,35.38720
$ ... 42 like lines cut

ENDDATA
