** Calculix structure data file generated from OpenVSP 3.35.3
** WingGeom_Struct0
** Num_Nodes:       746
** Num_Els:         1626
** Num_Tris:        1626
** Num_Quads:       0
** Num_Beams:       0
** Node_Offset:     0
** Element_Offset:  0

** Skin WingGeom_Struct0
*NODE, NSET=NSkin_WingGeom_Struct0
1,3.438651,0.503595,-0.224863
2,3.181525,0.000000,-0.237677
3,2.996324,0.498871,-0.245810
5,0.288392,0.672108,-0.153132
7,2.564717,0.501041,-0.260986
11,0.424280,0.000000,-0.180925
12,0.187179,0.000000,-0.125884
13,0.275707,0.309899,-0.150094
14,0.000000,0.000000,0.000000
15,0.000000,0.218845,0.000000
16,0.000000,0.407251,0.000000
17,0.000000,0.595657,0.000000
18,0.000000,0.784063,0.000000
20,2.804348,0.000000,-0.253245
21,3.995437,1.501469,-0.191006
22,3.634161,1.571849,-0.213950
23,3.995437,2.000000,-0.191006
24,2.427022,2.000000,-0.264598
27,1.541011,2.000000,-0.268672
29,0.000000,1.252193,0.000000
** ... 556 like lines cut

** RibArray0 WingGeom_Struct0
*NODE, NSET=NRibArray0_WingGeom_Struct0
737,1.769274,1.002921,-0.084578
738,1.334829,1.002921,-0.063817
739,1.334496,3.008762,-0.063904
740,1.769209,3.008762,-0.084597
741,1.769288,5.014603,-0.084582
742,1.334870,5.014603,-0.063815
743,1.772682,9.026285,-0.084746
744,1.340322,9.026285,-0.064066

** Spar1 WingGeom_Struct0
*NODE, NSET=NSpar1_WingGeom_Struct0
745,1.997718,9.851364,-0.095503
746,1.997718,2.504378,-0.095503

** Intersections WingGeom_Struct0
*NODE, NSET=Nintersections_WingGeom_Struct0
4,0.422885,1.002921,-0.180676
6,0.185709,1.002921,-0.125427
8,2.427024,1.002921,-0.264598
9,2.804355,1.002921,-0.253245
10,3.181528,1.002921,-0.237677
19,3.558512,1.002921,-0.218293
25,1.989313,1.501460,-0.271328
26,1.989313,2.000000,-0.271328
28,0.000000,1.002921,0.000000
35,1.112912,1.002921,-0.253210
36,0.728544,1.002921,-0.222986
53,1.989313,1.002921,-0.271328
57,1.989313,0.375409,-0.271328
59,1.989313,0.627545,-0.271328
61,1.540085,1.002921,-0.268654
72,1.989313,0.000000,-0.271328
76,3.995437,1.002921,-0.191006
83,1.558633,1.002921,0.120518
84,1.131936,1.002921,0.145892
90,0.196811,1.002921,0.107137
** ... 140 like lines cut

** Skin WingGeom_Struct0
*ELEMENT, TYPE=S3, ELSET=ESkin_WingGeom_Struct0_0
2,1,2,3
3,4,5,6
4,7,8,9
5,3,10,1
6,11,12,13
7,14,15,12
8,13,12,15
9,13,15,16
10,5,17,18
11,5,18,6
12,10,19,1
13,3,9,10
14,2,20,3
15,21,22,23
16,9,3,7
17,24,25,26
18,26,25,27
19,6,28,29
20,2,1,30
21,6,18,28
** ... 1428 like lines cut

*ELEMENT, TYPE=S3, ELSET=ESkin_WingGeom_Struct0_1

** RibArray0 WingGeom_Struct0
*ELEMENT, TYPE=S3, ELSET=ERibArray0_WingGeom_Struct0_0
1450,6,28,90
1451,124,99,53
1452,110,36,4
1453,96,4,6
1454,124,737,83
1455,83,61,738
1456,6,90,96
1457,96,110,4
1458,35,36,84
1459,84,36,110
1460,61,35,738
1461,84,738,35
1462,124,53,737
1463,9,8,92
1464,83,738,84
1465,102,10,9
1466,103,19,10
1467,8,53,99
1468,8,99,92
1469,83,737,61
** ... 4 like lines cut

*ELEMENT, TYPE=S3, ELSET=ERibArray0_WingGeom_Struct0_1
1474,211,157,152
1475,248,213,192
1476,175,173,228
1477,157,216,173
1478,175,739,155
1479,217,739,175
1480,166,211,152
1481,216,157,211
1482,228,173,216
1483,217,175,228
1484,219,155,739
1485,219,740,155
1486,739,217,219
1487,144,172,207
1488,248,192,740
1489,214,168,143
1490,144,214,143
1491,221,187,168
1492,172,192,213
1493,248,740,219
** ... 4 like lines cut

*ELEMENT, TYPE=S3, ELSET=ERibArray0_WingGeom_Struct0_2
1498,375,341,311
1499,274,281,365
1500,283,350,281
1501,367,741,294
1502,367,294,742
1503,283,298,346
1504,283,346,350
1505,363,742,268
1506,365,281,350
1507,365,363,274
1508,363,268,274
1509,367,742,363
1510,375,741,367
1511,294,268,742
1512,375,311,741
1513,261,277,335
1514,343,287,261
1515,355,289,287
1516,277,311,341
1517,277,341,335
** ... 4 like lines cut

*ELEMENT, TYPE=S3, ELSET=ERibArray0_WingGeom_Struct0_3
1522,475,418,396
1523,418,456,416
1524,479,396,407
1525,457,417,456
1526,407,409,470
1527,407,470,479
1528,475,396,479
1529,456,418,475
1530,456,417,416
1531,473,413,492
1532,435,457,492
1533,466,410,412
1534,413,465,412
1535,476,426,410
1536,492,413,435
1537,413,473,465
1538,466,412,465
1539,410,466,476
1540,426,476,441
1541,417,457,435

*ELEMENT, TYPE=S3, ELSET=ERibArray0_WingGeom_Struct0_4
1542,596,548,523
1543,548,610,552
1544,589,743,519
1545,589,744,588
1546,519,520,744
1547,522,594,523
1548,596,523,594
1549,610,548,596
1550,588,552,610
1551,588,520,552
1552,744,589,519
1553,588,744,520
1554,519,743,560
1555,618,533,560
1556,511,533,585
1557,618,560,743
1558,593,508,513
1559,511,586,513
1560,593,516,508
1561,585,533,618
** ... 4 like lines cut

*ELEMENT, TYPE=S3, ELSET=ERibArray0_WingGeom_Struct0_5

*ELEMENT, TYPE=S3, ELSET=ERibArray0_WingGeom_Struct0_6

*ELEMENT, TYPE=S3, ELSET=ERibArray0_WingGeom_Struct0_7

*ELEMENT, TYPE=S3, ELSET=ERibArray0_WingGeom_Struct0_8

*ELEMENT, TYPE=S3, ELSET=ERibArray0_WingGeom_Struct0_9

** Spar1 WingGeom_Struct0
*ELEMENT, TYPE=S3, ELSET=ESpar1_WingGeom_Struct0_0
1566,745,632,574
1567,313,322,374
1568,746,247,186
1569,436,494,438
1570,246,247,746
1571,312,386,319
1572,536,598,535
1573,696,574,632
1574,123,59,57
1575,186,185,746
1576,248,192,186
1577,248,226,192
1578,106,104,25
1579,26,246,185
1580,26,25,104
1581,25,53,106
1582,104,246,26
1583,159,192,226
1584,224,379,160
1585,224,159,226
** ... 42 like lines cut

*ELEMENT, TYPE=S3, ELSET=ESpar1_WingGeom_Struct0_1

** Properties WingGeom_Struct0

*SHELL SECTION, ELSET=ESkin_WingGeom_Struct0_0, MATERIAL=Aluminum_6061-T6, ORIENTATION=OSkin_WingGeom_Struct0_0
0.00833333

*ORIENTATION, NAME=OSkin_WingGeom_Struct0_0, SYSTEM=RECTANGULAR
-0.000000,1.000000,0.000000,0.0,0.0,1.0

*SHELL SECTION, ELSET=ESkin_WingGeom_Struct0_1, MATERIAL=Aluminum_6061-T6, ORIENTATION=OSkin_WingGeom_Struct0_1
0.00833333

*ORIENTATION, NAME=OSkin_WingGeom_Struct0_1, SYSTEM=RECTANGULAR
0.000000,0.000000,0.000000,0.0,0.0,1.0

*SHELL SECTION, ELSET=ERibArray0_WingGeom_Struct0_0, MATERIAL=Aluminum_6061-T6, ORIENTATION=ORibArray0_WingGeom_Struct0_0
0.00833333

*ORIENTATION, NAME=ORibArray0_WingGeom_Struct0_0, SYSTEM=RECTANGULAR
0.998859,0.000000,-0.047751,0.0,0.0,1.0

*SHELL SECTION, ELSET=ERibArray0_WingGeom_Struct0_1, MATERIAL=Aluminum_6061-T6, ORIENTATION=ORibArray0_WingGeom_Struct0_1
0.00833333

*ORIENTATION, NAME=ORibArray0_WingGeom_Struct0_1, SYSTEM=RECTANGULAR
0.998859,0.000000,-0.047751,0.0,0.0,1.0

*SHELL SECTION, ELSET=ERibArray0_WingGeom_Struct0_2, MATERIAL=Aluminum_6061-T6, ORIENTATION=ORibArray0_WingGeom_Struct0_2
0.00833333

*ORIENTATION, NAME=ORibArray0_WingGeom_Struct0_2, SYSTEM=RECTANGULAR
0.998859,0.000000,-0.047751,0.0,0.0,1.0

*SHELL SECTION, ELSET=ERibArray0_WingGeom_Struct0_3, MATERIAL=Aluminum_6061-T6, ORIENTATION=ORibArray0_WingGeom_Struct0_3
0.00833333

*ORIENTATION, NAME=ORibArray0_WingGeom_Struct0_3, SYSTEM=RECTANGULAR
0.998859,0.000000,-0.047751,0.0,0.0,1.0

*SHELL SECTION, ELSET=ERibArray0_WingGeom_Struct0_4, MATERIAL=Aluminum_6061-T6, ORIENTATION=ORibArray0_WingGeom_Struct0_4
0.00833333

*ORIENTATION, NAME=ORibArray0_WingGeom_Struct0_4, SYSTEM=RECTANGULAR
0.998859,0.000000,-0.047751,0.0,0.0,1.0

*SHELL SECTION, ELSET=ERibArray0_WingGeom_Struct0_5, MATERIAL=Aluminum_6061-T6, ORIENTATION=ORibArray0_WingGeom_Struct0_5
0.00833333

*ORIENTATION, NAME=ORibArray0_WingGeom_Struct0_5, SYSTEM=RECTANGULAR
0.000000,0.000000,0.000000,0.0,0.0,1.0

*SHELL SECTION, ELSET=ERibArray0_WingGeom_Struct0_6, MATERIAL=Aluminum_6061-T6, ORIENTATION=ORibArray0_WingGeom_Struct0_6
0.00833333

*ORIENTATION, NAME=ORibArray0_WingGeom_Struct0_6, SYSTEM=RECTANGULAR
0.000000,0.000000,0.000000,0.0,0.0,1.0

*SHELL SECTION, ELSET=ERibArray0_WingGeom_Struct0_7, MATERIAL=Aluminum_6061-T6, ORIENTATION=ORibArray0_WingGeom_Struct0_7
0.00833333

*ORIENTATION, NAME=ORibArray0_WingGeom_Struct0_7, SYSTEM=RECTANGULAR
0.000000,0.000000,0.000000,0.0,0.0,1.0

*SHELL SECTION, ELSET=ERibArray0_WingGeom_Struct0_8, MATERIAL=Aluminum_6061-T6, ORIENTATION=ORibArray0_WingGeom_Struct0_8
0.00833333

*ORIENTATION, NAME=ORibArray0_WingGeom_Struct0_8, SYSTEM=RECTANGULAR
0.000000,0.000000,0.000000,0.0,0.0,1.0

*SHELL SECTION, ELSET=ERibArray0_WingGeom_Struct0_9, MATERIAL=Aluminum_6061-T6, ORIENTATION=ORibArray0_WingGeom_Struct0_9
0.00833333

*ORIENTATION, NAME=ORibArray0_WingGeom_Struct0_9, SYSTEM=RECTANGULAR
0.000000,0.000000,0.000000,0.0,0.0,1.0

*SHELL SECTION, ELSET=ESpar1_WingGeom_Struct0_0, MATERIAL=Aluminum_6061-T6, ORIENTATION=OSpar1_WingGeom_Struct0_0
0.00833333

*ORIENTATION, NAME=OSpar1_WingGeom_Struct0_0, SYSTEM=RECTANGULAR
0.000000,1.000000,0.000000,0.0,0.0,1.0

*SHELL SECTION, ELSET=ESpar1_WingGeom_Struct0_1, MATERIAL=Aluminum_6061-T6, ORIENTATION=OSpar1_WingGeom_Struct0_1
0.00833333

*ORIENTATION, NAME=OSpar1_WingGeom_Struct0_1, SYSTEM=RECTANGULAR
0.000000,0.000000,0.000000,0.0,0.0,1.0


** Materials
*MATERIAL, NAME=Aluminum_6061-T6
*DENSITY
5.26338
*ELASTIC, TYPE=ISO
1.4256e+09, 0.33
*EXPANSION, TYPE=ISO
1.3e-05

