$NASTRAN Data File Generated from OpenVSP 3.30.0
$Num_Els: 1197
$Num_Tris: 1197
$Num_Quads: 0
$Num_Beams 0

$ 1, Skin_Gridpoints
SET 1 = 3,4,5,8,9,10,11,13,14,
15,16,17,19,20,21,24,26,27,
28,29,31,32,34,36,37,38,39,
41,42,44,46,47,48,49,51,53,
54,55,56,58,59,60,61,62,63,
64,65,66,67,68,69,72,73,74,
75,76,77,78,79,81,82,83,85,
87,90,91,93,94,95,96,98,100,
102,103,104,105,106,107,108,113,114,
115,117,118,119,120,121,124,125,126,
127,128,129,130,131,132,134,135,136,
137,139,140,142,143,146,147,148,149,
151,152,153,154,155,156,157,158,160,
161,162,163,164,165,166,167,168,169,
170,171,172,173,174,175,176,177,178,
179,180,181,182,183,184,185,186,187,
188,189,190,191,192,193,194,195,196,
197,198,199,200,201,202,203,204,205,
206,207,208,209,210,211,212,213,214,
215,216,217,218,219,220,221,222,223,
224,225,226,227,228,229,230,231,232,
$ ... 34 like lines cut

$ 2, Intersection_Gridpoints
SET 2 = 1,2,6,7,12,18,22,23,25,
30,33,35,40,43,45,50,52,57,
70,71,80,84,86,88,89,92,97,
99,101,109,110,111,112,116,122,123,
133,138,141,144,145,150,159,258,265,
267,268,274,276,277,285,286,288,289,
291,293,296,304,306,307,309,310,311,
314,315,328,329,333,336,340,341,347,
351,353,355,359,360,362,399,400,408,
415,464

$ 3, Skin_ShellElements
SET 3 = 572,573,574,575,576,577,578,579,580,
581,582,583,584,585,586,587,588,589,
590,591,592,593,594,595,596,597,598,
599,600,601,602,603,604,605,606,607,
608,609,610,611,612,613,614,615,616,
617,618,619,620,621,622,623,624,625,
626,627,628,629,630,631,632,633,634,
635,636,637,638,639,640,641,642,643,
644,645,646,647,648,649,650,651,652,
653,654,655,656,657,658,659,660,661,
662,663,664,665,666,667,668,669,670,
671,672,673,674,675,676,677,678,679,
680,681,682,683,684,685,686,687,688,
689,690,691,692,693,694,695,696,697,
698,699,700,701,702,703,704,705,706,
707,708,709,710,711,712,713,714,715,
716,717,718,719,720,721,722,723,724,
725,726,727,728,729,730,731,732,733,
734,735,736,737,738,739,740,741,742,
743,744,745,746,747,748,749,750,751,
752,753,754,755,756,757,758,759,760,
$ ... 104 like lines cut

$ 4, RibArray0_ShellElements
SET 4 = 1696,1697,1698,1699,1700,1701,1702,1703,1704,
1705,1706,1707,1708,1709,1710,1711,1712,1713,
1714,1715,1716,1717,1718,1719,1720,1721,1722,
1723,1724,1725,1726,1727,1728,1729,1730,1731,
1732,1733,1734,1735,1736,1737,1738,1739,1740,
1741,1742,1743,1744,1745,1746,1747,1748,1749,
1750,1751,1752,1753,1754,1755,1756,1757,1758,
1759,1760,1761,1762,1763,1764,1765,1766,1767,
1768

BEGIN BULK

$Skin Gridpoints
GRID    ,       3,        ,8.495719,0.991692,2.761846
GRID    ,       4,        ,7.632318,2.764986,2.798756
GRID    ,       5,        ,8.257477,2.531068,2.810353
GRID    ,       8,        ,10.94277,2.605542,2.935788
GRID    ,       9,        ,9.944360,4.625042,2.956390
GRID    ,      10,        ,10.85243,4.768654,2.991127
GRID    ,      11,        ,10.88229,4.053689,2.972836
GRID    ,      13,        ,9.255960,11.58684,3.167461
GRID    ,      14,        ,8.516926,11.91775,3.170931
GRID    ,      15,        ,7.879650,14.07782,3.246640
GRID    ,      16,        ,7.907672,14.90840,3.278519
GRID    ,      17,        ,8.802609,14.62679,3.269168
GRID    ,      19,        ,9.442918,15.58883,3.294771
GRID    ,      20,        ,8.561956,15.61453,3.304439
GRID    ,      21,        ,7.621575,0.910897,2.724298
GRID    ,      24,        ,8.911832,6.300293,2.976575
GRID    ,      26,        ,7.250316, 0.0e+00,2.676870
GRID    ,      27,        ,8.002917, 0.0e+00,2.701416
GRID    ,      28,        ,10.41245,15.30335,3.260636
GRID    ,      29,        ,9.703341,14.68993,3.263036
$ ... 468 like lines cut

$RibArray0 Gridpoints

$Intersections
GRID    ,       1,        ,7.844020,1.842072,2.768476
GRID    ,       2,        ,8.532190,1.841115,2.795883
GRID    ,       6,        ,10.97488,1.836916,2.916125
GRID    ,       7,        ,10.14920,1.838300,2.876505
GRID    ,      12,        ,8.884306,12.85725,3.207988
GRID    ,      18,        ,8.846346,16.52968,3.334159
GRID    ,      22,        ,7.211435,1.842697,2.750582
GRID    ,      23,        ,8.492679,5.513169,2.932946
GRID    ,      25,        ,9.245798,5.512210,2.960425
GRID    ,      30,        ,10.82145,5.510475,3.010105
GRID    ,      33,        ,10.03507,5.511268,2.987398
GRID    ,      35,        ,9.914109,9.184257,3.097702
GRID    ,      40,        ,7.404662,16.52937,3.343044
GRID    ,      43,        ,8.083349,16.52949,3.339546
GRID    ,      45,        ,10.66803,9.184034,3.104086
GRID    ,      50,        ,7.830739,5.513870,2.912888
GRID    ,      52,        ,7.218983,5.514347,2.899224
GRID    ,      57,        ,9.170399,9.184695,3.085170
GRID    ,      70,        ,6.661744,1.842801,2.747589
GRID    ,      71,        ,6.199381,1.841882,2.773928
$ ... 63 like lines cut

$Remainingnodes

$Skin
CTRIA3  ,     572,       1,       1,       2,       3,-91.0718
CTRIA3  ,     573,       1,       1,       4,       5,12.01683
CTRIA3  ,     574,       1,       6,       7,       8,87.72566
CTRIA3  ,     575,       1,       9,      10,      11,-83.1998
CTRIA3  ,     576,       1,      12,      13,      14,-165.203
CTRIA3  ,     577,       1,      15,      16,      17,-3.09303
CTRIA3  ,     578,       1,      18,      19,      20,149.2354
CTRIA3  ,     579,       1,       3,      21,       1,94.43882
CTRIA3  ,     580,       1,      21,      22,       1,23.03525
CTRIA3  ,     581,       1,      23,      24,      25,-29.4380
CTRIA3  ,     582,       1,      26,      21,      27,-22.9046
CTRIA3  ,     583,       1,      28,      29,      19,-128.756
CTRIA3  ,     584,       1,      30,      31,      32,43.94295
CTRIA3  ,     585,       1,      30,      10,      33,-179.841
CTRIA3  ,     586,       1,      34,      35,      36,-10.7051
CTRIA3  ,     587,       1,      34,      36,      37,-64.7486
CTRIA3  ,     588,       1,      38,      39,      40,131.9773
CTRIA3  ,     589,       1,      41,      42,      31,-66.1093
CTRIA3  ,     590,       1,      43,      20,      44,153.5649
CTRIA3  ,     591,       1,      45,      36,      35,-179.842
$ ... 1104 like lines cut

$RibArray0
CTRIA3  ,    1696,       1,      70,      71,     400,176.7375
CTRIA3  ,    1697,       1,      71,      80,     258,157.5484
CTRIA3  ,    1698,       1,      22,     415,       1,62.16944
CTRIA3  ,    1699,       1,     399,      22,      70,76.12303
CTRIA3  ,    1700,       1,     258,     400,      71,12.83029
CTRIA3  ,    1701,       1,     399,      70,     400,123.1250
CTRIA3  ,    1702,       1,      22,     399,     415,103.8770
CTRIA3  ,    1703,       1,     408,       2,       1,50.03978
CTRIA3  ,    1704,       1,     286,     138,       2,36.79341
CTRIA3  ,    1705,       1,     285,       7,     138,24.73088
CTRIA3  ,    1706,       1,     286,       2,     408,107.6307
CTRIA3  ,    1707,       1,     138,     286,     285,143.2066
CTRIA3  ,    1708,       1,     285,     288,       7,9.573499
CTRIA3  ,    1709,       1,       6,       7,     288,177.2511
CTRIA3  ,    1710,       1,       1,     415,     408,116.5998
CTRIA3  ,    1711,       1,     274,      86,      84,83.40463
CTRIA3  ,    1712,       1,      84,      97,     265,158.3531
CTRIA3  ,    1713,       1,      52,     304,      50,62.12780
CTRIA3  ,    1714,       1,     306,      52,      86,75.81368
CTRIA3  ,    1715,       1,     265,     274,      84,12.61101
$ ... 53 like lines cut

$Properties
$ DefaultShell using Aluminum 7075-T6
PSHELL  ,       1,       1,0.100000,      -1,        ,        ,        ,        ,
        ,        ,        ,        
$ DefaultBeam using Aluminum 7075-T6
PBAR    ,       2,       1,0.100000,0.100000,0.100000, 0.0e+00,        ,        ,
        ,        ,        ,        ,        ,        ,        ,        ,        ,
        ,        ,        , 0.0e+00
$ DefaultShell using Aluminum 7075-T6
PSHELL  ,       3,       1,0.100000,      -1,        ,        ,        ,        ,
        ,        ,        ,        
$ DefaultBeam using Aluminum 7075-T6
PBAR    ,       4,       1,0.100000,0.100000,0.100000, 0.0e+00,        ,        ,
        ,        ,        ,        ,        ,        ,        ,        ,        ,
        ,        ,        , 0.0e+00
$ DefaultShell using Aluminum 7075-T6
PSHELL  ,       5,       1,0.100000,      -1,        ,        ,        ,        ,
        ,        ,        ,        
$ DefaultBeam using Aluminum 7075-T6
PBAR    ,       6,       1,0.100000,0.100000,0.100000, 0.0e+00,        ,        ,
        ,        ,        ,        ,        ,        ,        ,        ,        ,
        ,        ,        , 0.0e+00
$ DefaultShell using Aluminum 7075-T6
PSHELL  ,       7,       1,0.100000,      -1,        ,        ,        ,        ,
        ,        ,        ,        
$ DefaultBeam using Aluminum 7075-T6
PBAR    ,       8,       1,0.100000,0.100000,0.100000, 0.0e+00,        ,        ,
        ,        ,        ,        ,        ,        ,        ,        ,        ,
        ,        ,        , 0.0e+00
$ DefaultShell using Aluminum 7075-T6
PSHELL  ,       9,       1,0.100000,      -1,        ,        ,        ,        ,
        ,        ,        ,        
$ DefaultBeam using Aluminum 7075-T6
PBAR    ,      10,       1,0.100000,0.100000,0.100000, 0.0e+00,        ,        ,
        ,        ,        ,        ,        ,        ,        ,        ,        ,
        ,        ,        , 0.0e+00
$ DefaultShell using Aluminum 7075-T6
PSHELL  ,      11,       1,0.100000,      -1,        ,        ,        ,        ,
        ,        ,        ,        
$ DefaultBeam using Aluminum 7075-T6
PBAR    ,      12,       1,0.100000,0.100000,0.100000, 0.0e+00,        ,        ,
        ,        ,        ,        ,        ,        ,        ,        ,        ,
        ,        ,        , 0.0e+00
$ DefaultShell using Aluminum 7075-T6
PSHELL  ,      13,       1,0.100000,      -1,        ,        ,        ,        ,
        ,        ,        ,        
$ DefaultBeam using Aluminum 7075-T6
PBAR    ,      14,       1,0.100000,0.100000,0.100000, 0.0e+00,        ,        ,
        ,        ,        ,        ,        ,        ,        ,        ,        ,
        ,        ,        , 0.0e+00
$ DefaultShell using Aluminum 7075-T6
PSHELL  ,      15,       1,0.100000,      -1,        ,        ,        ,        ,
        ,        ,        ,        
$ DefaultBeam using Aluminum 7075-T6
PBAR    ,      16,       1,0.100000,0.100000,0.100000, 0.0e+00,        ,        ,
        ,        ,        ,        ,        ,        ,        ,        ,        ,
        ,        ,        , 0.0e+00
$ DefaultShell using Aluminum 7075-T6
PSHELL  ,      17,       1,0.100000,      -1,        ,        ,        ,        ,
        ,        ,        ,        
$ DefaultBeam using Aluminum 7075-T6
PBAR    ,      18,       1,0.100000,0.100000,0.100000, 0.0e+00,        ,        ,
        ,        ,        ,        ,        ,        ,        ,        ,        ,
        ,        ,        , 0.0e+00
$ DefaultShell using Aluminum 7075-T6
PSHELL  ,      19,       1,0.100000,      -1,        ,        ,        ,        ,
        ,        ,        ,        
$ DefaultBeam using Aluminum 7075-T6
PBAR    ,      20,       1,0.100000,0.100000,0.100000, 0.0e+00,        ,        ,
        ,        ,        ,        ,        ,        ,        ,        ,        ,
        ,        ,        , 0.0e+00
$ DefaultShell using Aluminum 7075-T6
PSHELL  ,      21,       1,0.100000,      -1,        ,        ,        ,        ,
        ,        ,        ,        
$ DefaultBeam using Aluminum 7075-T6
PBAR    ,      22,       1,0.100000,0.100000,0.100000, 0.0e+00,        ,        ,
        ,        ,        ,        ,        ,        ,        ,        ,        ,
        ,        ,        , 0.0e+00
$ DefaultShell using Aluminum 7075-T6
PSHELL  ,      23,       1,0.100000,      -1,        ,        ,        ,        ,
        ,        ,        ,        
$ DefaultBeam using Aluminum 7075-T6
PBAR    ,      24,       1,0.100000,0.100000,0.100000, 0.0e+00,        ,        ,
        ,        ,        ,        ,        ,        ,        ,        ,        ,
        ,        ,        , 0.0e+00
$ DefaultShell using Aluminum 7075-T6
PSHELL  ,      25,       1,0.100000,      -1,        ,        ,        ,        ,
        ,        ,        ,        
$ DefaultBeam using Aluminum 7075-T6
PBAR    ,      26,       1,0.100000,0.100000,0.100000, 0.0e+00,        ,        ,
        ,        ,        ,        ,        ,        ,        ,        ,        ,
        ,        ,        , 0.0e+00
$ DefaultShell using Aluminum 7075-T6
PSHELL  ,      27,       1,0.100000,      -1,        ,        ,        ,        ,
        ,        ,        ,        
$ DefaultBeam using Aluminum 7075-T6
PBAR    ,      28,       1,0.100000,0.100000,0.100000, 0.0e+00,        ,        ,
        ,        ,        ,        ,        ,        ,        ,        ,        ,
        ,        ,        , 0.0e+00
$ DefaultShell using Aluminum 7075-T6
PSHELL  ,      29,       1,0.100000,      -1,        ,        ,        ,        ,
        ,        ,        ,        
$ DefaultBeam using Aluminum 7075-T6
PBAR    ,      30,       1,0.100000,0.100000,0.100000, 0.0e+00,        ,        ,
        ,        ,        ,        ,        ,        ,        ,        ,        ,
        ,        ,        , 0.0e+00

$Materials
$ Aluminum 7075-T6
MAT1    ,       1,1.50e+09,5.63e+08,0.330000,5.452298,1.31e-05


ENDDATA
