**Calculix Data File Generated from OpenVSP 3.30.0
**Num_Els: 1197
**Num_Tris: 1197
**Num_Quads: 0
**Num_Beams 0

**Skin
*NODE, NSET=NSkin
3,8.495719,0.991692,2.761846
4,7.632318,2.764986,2.798756
5,8.257477,2.531068,2.810353
8,10.942774,2.605542,2.935788
9,9.944360,4.625042,2.956390
10,10.852432,4.768654,2.991127
11,10.882293,4.053689,2.972836
13,9.255960,11.586838,3.167461
14,8.516926,11.917755,3.170931
15,7.879650,14.077815,3.246640
16,7.907672,14.908397,3.278519
17,8.802609,14.626790,3.269168
19,9.442918,15.588831,3.294771
20,8.561956,15.614531,3.304439
21,7.621575,0.910897,2.724298
24,8.911832,6.300293,2.976575
26,7.250316,0.000000,2.676870
27,8.002917,0.000000,2.701416
28,10.412454,15.303351,3.260636
29,9.703341,14.689932,3.263036
** ... 468 like lines cut

**RibArray0
*NODE, NSET=NRibArray0

*ELEMENT, TYPE=S3, ELSET=ESkin_0
1,1,2,3
2,1,4,5
3,6,7,8
4,9,10,11
5,12,13,14
6,15,16,17
7,18,19,20
8,3,21,1
9,21,22,1
10,23,24,25
11,26,21,27
12,28,29,19
13,30,31,32
14,30,10,33
15,34,35,36
16,34,36,37
17,38,39,40
18,41,42,31
19,43,20,44
20,45,36,35
** ... 1104 like lines cut

*ELEMENT, TYPE=S3, ELSET=ESkin_1

*ELEMENT, TYPE=S3, ELSET=ERibArray0_0
1125,70,71,400
1126,71,80,258
1127,22,415,1
1128,399,22,70
1129,258,400,71
1130,399,70,400
1131,22,399,415
1132,408,2,1
1133,286,138,2
1134,285,7,138
1135,286,2,408
1136,138,286,285
1137,285,288,7
1138,6,7,288
1139,1,415,408

*ELEMENT, TYPE=S3, ELSET=ERibArray0_1
1140,274,86,84
1141,84,97,265
1142,52,304,50
1143,306,52,86
1144,265,274,84
1145,306,86,274
1146,52,306,304
1147,291,23,50
1148,289,25,23
1149,307,33,25
1150,289,23,291
1151,25,289,307
1152,307,315,33
1153,33,315,30
1154,50,304,291

*ELEMENT, TYPE=S3, ELSET=ERibArray0_2
1155,276,92,89
1156,89,88,268
1157,101,277,99
1158,309,101,92
1159,268,276,89
1160,309,92,276
1161,101,309,277
1162,99,314,133
1163,311,57,133
1164,35,347,45
1165,57,310,35
1166,311,133,314
1167,57,311,310
1168,35,310,347
1169,314,99,277

*ELEMENT, TYPE=S3, ELSET=ERibArray0_3
1170,464,145,141
1171,141,144,267
1172,109,296,336
1173,359,109,145
1174,141,267,464
1175,145,464,359
1176,296,109,359
1177,353,12,110
1178,355,111,112
1179,12,351,112
1180,336,353,110
1181,353,351,12
1182,112,351,355
1183,336,110,109

*ELEMENT, TYPE=S3, ELSET=ERibArray0_4
1184,340,116,150
1185,150,159,333
1186,40,116,341
1187,333,340,150
1188,340,341,116
1189,40,341,329
1190,329,328,40
1191,360,123,122
1192,18,293,122
1193,43,328,362
1194,43,362,18
1195,328,43,40
1196,362,293,18
1197,122,293,360

*ELEMENT, TYPE=S3, ELSET=ERibArray0_5

*ELEMENT, TYPE=S3, ELSET=ERibArray0_6

*ELEMENT, TYPE=S3, ELSET=ERibArray0_7

*ELEMENT, TYPE=S3, ELSET=ERibArray0_8

*ELEMENT, TYPE=S3, ELSET=ERibArray0_9

**Intersections
*NODE, NSET=Nintersections
1,7.844020,1.842072,2.768476
2,8.532190,1.841115,2.795883
6,10.974875,1.836916,2.916125
7,10.149198,1.838300,2.876505
12,8.884306,12.857247,3.207988
18,8.846346,16.529681,3.334159
22,7.211435,1.842697,2.750582
23,8.492679,5.513169,2.932946
25,9.245798,5.512210,2.960425
30,10.821450,5.510475,3.010105
33,10.035074,5.511268,2.987398
35,9.914109,9.184257,3.097702
40,7.404662,16.529371,3.343044
43,8.083349,16.529493,3.339546
45,10.668025,9.184034,3.104086
50,7.830739,5.513870,2.912888
52,7.218983,5.514347,2.899224
57,9.170399,9.184695,3.085170
70,6.661744,1.842801,2.747589
71,6.199381,1.841882,2.773928
** ... 63 like lines cut


*SHELL SECTION, ELSET=ESkin_0, MATERIAL=Aluminum 7075-T6, ORIENTATION=OSkin_0
0.1

*ORIENTATION, NAME=OSkin_0, SYSTEM=RECTANGULAR
-0.018961,0.999194,0.035384,0.0,0.0,1.0

*SHELL SECTION, ELSET=ESkin_1, MATERIAL=Aluminum 7075-T6, ORIENTATION=OSkin_1
0.1

*SHELL SECTION, ELSET=ERibArray0_0, MATERIAL=Aluminum 7075-T6, ORIENTATION=ORibArray0_0
0.1

*ORIENTATION, NAME=ORibArray0_0, SYSTEM=RECTANGULAR
1.000000,0.000000,0.000000,0.0,0.0,1.0

*SHELL SECTION, ELSET=ERibArray0_1, MATERIAL=Aluminum 7075-T6, ORIENTATION=ORibArray0_1
0.1

*ORIENTATION, NAME=ORibArray0_1, SYSTEM=RECTANGULAR
1.000000,0.000000,0.000000,0.0,0.0,1.0

*SHELL SECTION, ELSET=ERibArray0_2, MATERIAL=Aluminum 7075-T6, ORIENTATION=ORibArray0_2
0.1

*ORIENTATION, NAME=ORibArray0_2, SYSTEM=RECTANGULAR
1.000000,0.000000,0.000000,0.0,0.0,1.0

*SHELL SECTION, ELSET=ERibArray0_3, MATERIAL=Aluminum 7075-T6, ORIENTATION=ORibArray0_3
0.1

*ORIENTATION, NAME=ORibArray0_3, SYSTEM=RECTANGULAR
1.000000,0.000000,0.000000,0.0,0.0,1.0

*SHELL SECTION, ELSET=ERibArray0_4, MATERIAL=Aluminum 7075-T6, ORIENTATION=ORibArray0_4
0.1

*ORIENTATION, NAME=ORibArray0_4, SYSTEM=RECTANGULAR
1.000000,0.000000,0.000000,0.0,0.0,1.0

*SHELL SECTION, ELSET=ERibArray0_5, MATERIAL=Aluminum 7075-T6, ORIENTATION=ORibArray0_5
0.1

*SHELL SECTION, ELSET=ERibArray0_6, MATERIAL=Aluminum 7075-T6, ORIENTATION=ORibArray0_6
0.1

*SHELL SECTION, ELSET=ERibArray0_7, MATERIAL=Aluminum 7075-T6, ORIENTATION=ORibArray0_7
0.1

*SHELL SECTION, ELSET=ERibArray0_8, MATERIAL=Aluminum 7075-T6, ORIENTATION=ORibArray0_8
0.1

*SHELL SECTION, ELSET=ERibArray0_9, MATERIAL=Aluminum 7075-T6, ORIENTATION=ORibArray0_9
0.1

**Materials
*MATERIAL, NAME=Aluminum 7075-T6
*DENSITY
5.4523
*ELASTIC, TYPE=ISO
1.49749e+09, 0.33
*EXPANSION, TYPE=ISO
1.31111e-05

